powerfulcases/cases/matpower/case33mg/case33mg.raw
0, 1, 33, 0, 0, 60  / 28-Jan-2026 21:52:15 - MATPOWER 8.1


     1, 'BUS 1       ',     12.66, 3,    1,    1, 1,           1,           0,  1.1,  0.9,  1.1,  0.9
     2, 'BUS 2       ',     12.66, 1,    1,    1, 1,           1,           0,  1.1,  0.9,  1.1,  0.9
     3, 'BUS 3       ',     12.66, 1,    1,    1, 1,           1,           0,  1.1,  0.9,  1.1,  0.9
     4, 'BUS 4       ',     12.66, 1,    1,    1, 1,           1,           0,  1.1,  0.9,  1.1,  0.9
     5, 'BUS 5       ',     12.66, 1,    1,    1, 1,           1,           0,  1.1,  0.9,  1.1,  0.9
     6, 'BUS 6       ',     12.66, 1,    1,    1, 1,           1,           0,  1.1,  0.9,  1.1,  0.9
     7, 'BUS 7       ',     12.66, 1,    1,    1, 1,           1,           0,  1.1,  0.9,  1.1,  0.9
     8, 'BUS 8       ',     12.66, 1,    1,    1, 1,           1,           0,  1.1,  0.9,  1.1,  0.9
     9, 'BUS 9       ',     12.66, 1,    1,    1, 1,           1,           0,  1.1,  0.9,  1.1,  0.9
    10, 'BUS 10      ',     12.66, 1,    1,    1, 1,           1,           0,  1.1,  0.9,  1.1,  0.9
    11, 'BUS 11      ',     12.66, 1,    1,    1, 1,           1,           0,  1.1,  0.9,  1.1,  0.9
    12, 'BUS 12      ',     12.66, 1,    1,    1, 1,           1,           0,  1.1,  0.9,  1.1,  0.9
    13, 'BUS 13      ',     12.66, 1,    1,    1, 1,           1,           0,  1.1,  0.9,  1.1,  0.9
    14, 'BUS 14      ',     12.66, 1,    1,    1, 1,           1,           0,  1.1,  0.9,  1.1,  0.9
    15, 'BUS 15      ',     12.66, 1,    1,    1, 1,           1,           0,  1.1,  0.9,  1.1,  0.9
    16, 'BUS 16      ',     12.66, 1,    1,    1, 1,           1,           0,  1.1,  0.9,  1.1,  0.9
    17, 'BUS 17      ',     12.66, 1,    1,    1, 1,           1,           0,  1.1,  0.9,  1.1,  0.9
    18, 'BUS 18      ',     12.66, 1,    1,    1, 1,           1,           0,  1.1,  0.9,  1.1,  0.9
    19, 'BUS 19      ',     12.66, 1,    1,    1, 1,           1,           0,  1.1,  0.9,  1.1,  0.9
    20, 'BUS 20      ',     12.66, 1,    1,    1, 1,           1,           0,  1.1,  0.9,  1.1,  0.9
    21, 'BUS 21      ',     12.66, 1,    1,    1, 1,           1,           0,  1.1,  0.9,  1.1,  0.9
    22, 'BUS 22      ',     12.66, 1,    1,    1, 1,           1,           0,  1.1,  0.9,  1.1,  0.9
    23, 'BUS 23      ',     12.66, 1,    1,    1, 1,           1,           0,  1.1,  0.9,  1.1,  0.9
    24, 'BUS 24      ',     12.66, 1,    1,    1, 1,           1,           0,  1.1,  0.9,  1.1,  0.9
    25, 'BUS 25      ',     12.66, 1,    1,    1, 1,           1,           0,  1.1,  0.9,  1.1,  0.9
    26, 'BUS 26      ',     12.66, 1,    1,    1, 1,           1,           0,  1.1,  0.9,  1.1,  0.9
    27, 'BUS 27      ',     12.66, 1,    1,    1, 1,           1,           0,  1.1,  0.9,  1.1,  0.9
    28, 'BUS 28      ',     12.66, 1,    1,    1, 1,           1,           0,  1.1,  0.9,  1.1,  0.9
    29, 'BUS 29      ',     12.66, 1,    1,    1, 1,           1,           0,  1.1,  0.9,  1.1,  0.9
    30, 'BUS 30      ',     12.66, 1,    1,    1, 1,           1,           0,  1.1,  0.9,  1.1,  0.9
    31, 'BUS 31      ',     12.66, 1,    1,    1, 1,           1,           0,  1.1,  0.9,  1.1,  0.9
    32, 'BUS 32      ',     12.66, 1,    1,    1, 1,           1,           0,  1.1,  0.9,  1.1,  0.9
    33, 'BUS 33      ',     12.66, 1,    1,    1, 1,           1,           0,  1.1,  0.9,  1.1,  0.9
0 / END OF BUS DATA, BEGIN LOAD DATA
     2,  1, 1,    1,    1,       0.1,      0.06, 0, 0, 0, 0, 1, 1, 0
     3,  1, 1,    1,    1,      0.09,      0.04, 0, 0, 0, 0, 1, 1, 0
     4,  1, 1,    1,    1,      0.12,      0.08, 0, 0, 0, 0, 1, 1, 0
     5,  1, 1,    1,    1,      0.06,      0.03, 0, 0, 0, 0, 1, 1, 0
     6,  1, 1,    1,    1,      0.06,      0.02, 0, 0, 0, 0, 1, 1, 0
     7,  1, 1,    1,    1,       0.2,       0.1, 0, 0, 0, 0, 1, 1, 0
     8,  1, 1,    1,    1,       0.2,       0.1, 0, 0, 0, 0, 1, 1, 0
     9,  1, 1,    1,    1,      0.06,      0.02, 0, 0, 0, 0, 1, 1, 0
    10,  1, 1,    1,    1,      0.06,      0.02, 0, 0, 0, 0, 1, 1, 0
    11,  1, 1,    1,    1,     0.045,      0.03, 0, 0, 0, 0, 1, 1, 0
    12,  1, 1,    1,    1,      0.06,     0.035, 0, 0, 0, 0, 1, 1, 0
    13,  1, 1,    1,    1,      0.06,     0.035, 0, 0, 0, 0, 1, 1, 0
    14,  1, 1,    1,    1,      0.12,      0.08, 0, 0, 0, 0, 1, 1, 0
    15,  1, 1,    1,    1,      0.06,      0.01, 0, 0, 0, 0, 1, 1, 0
    16,  1, 1,    1,    1,      0.06,      0.02, 0, 0, 0, 0, 1, 1, 0
    17,  1, 1,    1,    1,      0.06,      0.02, 0, 0, 0, 0, 1, 1, 0
    18,  1, 1,    1,    1,      0.09,      0.04, 0, 0, 0, 0, 1, 1, 0
    19,  1, 1,    1,    1,      0.09,      0.04, 0, 0, 0, 0, 1, 1, 0
    20,  1, 1,    1,    1,      0.09,      0.04, 0, 0, 0, 0, 1, 1, 0
    21,  1, 1,    1,    1,      0.09,      0.04, 0, 0, 0, 0, 1, 1, 0
    22,  1, 1,    1,    1,      0.09,      0.04, 0, 0, 0, 0, 1, 1, 0
    23,  1, 1,    1,    1,      0.09,      0.05, 0, 0, 0, 0, 1, 1, 0
    24,  1, 1,    1,    1,      0.42,       0.2, 0, 0, 0, 0, 1, 1, 0
    25,  1, 1,    1,    1,      0.42,       0.2, 0, 0, 0, 0, 1, 1, 0
    26,  1, 1,    1,    1,      0.06,     0.025, 0, 0, 0, 0, 1, 1, 0
    27,  1, 1,    1,    1,      0.06,     0.025, 0, 0, 0, 0, 1, 1, 0
    28,  1, 1,    1,    1,      0.06,      0.02, 0, 0, 0, 0, 1, 1, 0
    29,  1, 1,    1,    1,      0.12,      0.07, 0, 0, 0, 0, 1, 1, 0
    30,  1, 1,    1,    1,       0.2,       0.6, 0, 0, 0, 0, 1, 1, 0
    31,  1, 1,    1,    1,      0.15,      0.07, 0, 0, 0, 0, 1, 1, 0
    32,  1, 1,    1,    1,      0.21,       0.1, 0, 0, 0, 0, 1, 1, 0
    33,  1, 1,    1,    1,      0.06,      0.04, 0, 0, 0, 0, 1, 1, 0
0 / END OF LOAD DATA, BEGIN FIXED SHUNT DATA
0 / END OF FIXED SHUNT DATA, BEGIN GENERATOR DATA
     1,  1,         0,         0,        10,       -10,        1, 0,     100, 0, 1, 0, 0, 1, 1, 100,        10,         0, 1, 1, 0, 1, 0, 1, 0, 1, 0, 1
0 / END OF GENERATOR DATA, BEGIN BRANCH DATA
     1,      2, 1, 0.0005752591, 0.0002932449,        0,       0,       0,       0, 0, 0, 0, 0, 1, 1, 0, 1, 1, 0, 1, 0, 1, 0, 1
     2,      3, 1, 0.003075952, 0.001566676,        0,       0,       0,       0, 0, 0, 0, 0, 1, 1, 0, 1, 1, 0, 1, 0, 1, 0, 1
     3,      4, 1, 0.002283567, 0.001162997,        0,       0,       0,       0, 0, 0, 0, 0, 1, 1, 0, 1, 1, 0, 1, 0, 1, 0, 1
     4,      5, 1, 0.002377779, 0.001211039,        0,       0,       0,       0, 0, 0, 0, 0, 1, 1, 0, 1, 1, 0, 1, 0, 1, 0, 1
     5,      6, 1, 0.005109948, 0.004411152,        0,       0,       0,       0, 0, 0, 0, 0, 1, 1, 0, 1, 1, 0, 1, 0, 1, 0, 1
     6,      7, 1, 0.001167988, 0.00386085,        0,       0,       0,       0, 0, 0, 0, 0, 1, 1, 0, 1, 1, 0, 1, 0, 1, 0, 1
     7,      8, 1, 0.01067786, 0.007706101,        0,       0,       0,       0, 0, 0, 0, 0, 1, 1, 0, 1, 1, 0, 1, 0, 1, 0, 1
     8,      9, 1, 0.00642643, 0.004617047,        0,       0,       0,       0, 0, 0, 0, 0, 1, 1, 0, 1, 1, 0, 1, 0, 1, 0, 1
     9,     10, 1, 0.00651378, 0.004617047,        0,       0,       0,       0, 0, 0, 0, 0, 1, 1, 0, 1, 1, 0, 1, 0, 1, 0, 1
    10,     11, 1, 0.001226637, 0.0004055514,        0,       0,       0,       0, 0, 0, 0, 0, 1, 1, 0, 1, 1, 0, 1, 0, 1, 0, 1
    11,     12, 1, 0.002335976, 0.0007724195,        0,       0,       0,       0, 0, 0, 0, 0, 1, 1, 0, 1, 1, 0, 1, 0, 1, 0, 1
    12,     13, 1, 0.009159223, 0.007206337,        0,       0,       0,       0, 0, 0, 0, 0, 1, 1, 0, 1, 1, 0, 1, 0, 1, 0, 1
    13,     14, 1, 0.003379179, 0.004447963,        0,       0,       0,       0, 0, 0, 0, 0, 1, 1, 0, 1, 1, 0, 1, 0, 1, 0, 1
    14,     15, 1, 0.003687398, 0.003281847,        0,       0,       0,       0, 0, 0, 0, 0, 1, 1, 0, 1, 1, 0, 1, 0, 1, 0, 1
    15,     16, 1, 0.004656354, 0.003400393,        0,       0,       0,       0, 0, 0, 0, 0, 1, 1, 0, 1, 1, 0, 1, 0, 1, 0, 1
    16,     17, 1, 0.008042397, 0.01073775,        0,       0,       0,       0, 0, 0, 0, 0, 1, 1, 0, 1, 1, 0, 1, 0, 1, 0, 1
    17,     18, 1, 0.004567133, 0.003581331,        0,       0,       0,       0, 0, 0, 0, 0, 1, 1, 0, 1, 1, 0, 1, 0, 1, 0, 1
     2,     19, 1, 0.001023237, 0.0009764431,        0,       0,       0,       0, 0, 0, 0, 0, 1, 1, 0, 1, 1, 0, 1, 0, 1, 0, 1
    19,     20, 1, 0.009385084, 0.008456683,        0,       0,       0,       0, 0, 0, 0, 0, 1, 1, 0, 1, 1, 0, 1, 0, 1, 0, 1
    20,     21, 1, 0.002554974, 0.002984859,        0,       0,       0,       0, 0, 0, 0, 0, 1, 1, 0, 1, 1, 0, 1, 0, 1, 0, 1
    21,     22, 1, 0.004423006, 0.005848052,        0,       0,       0,       0, 0, 0, 0, 0, 1, 1, 0, 1, 1, 0, 1, 0, 1, 0, 1
     3,     23, 1, 0.002815151, 0.001923562,        0,       0,       0,       0, 0, 0, 0, 0, 1, 1, 0, 1, 1, 0, 1, 0, 1, 0, 1
    23,     24, 1, 0.005602849, 0.004424254,        0,       0,       0,       0, 0, 0, 0, 0, 1, 1, 0, 1, 1, 0, 1, 0, 1, 0, 1
    24,     25, 1, 0.005590371, 0.00437434,        0,       0,       0,       0, 0, 0, 0, 0, 1, 1, 0, 1, 1, 0, 1, 0, 1, 0, 1
     6,     26, 1, 0.001266568, 0.0006451387,        0,       0,       0,       0, 0, 0, 0, 0, 1, 1, 0, 1, 1, 0, 1, 0, 1, 0, 1
    26,     27, 1, 0.001773196, 0.0009028199,        0,       0,       0,       0, 0, 0, 0, 0, 1, 1, 0, 1, 1, 0, 1, 0, 1, 0, 1
    27,     28, 1, 0.006607369, 0.00582559,        0,       0,       0,       0, 0, 0, 0, 0, 1, 1, 0, 1, 1, 0, 1, 0, 1, 0, 1
    28,     29, 1, 0.005017607, 0.004371221,        0,       0,       0,       0, 0, 0, 0, 0, 1, 1, 0, 1, 1, 0, 1, 0, 1, 0, 1
    29,     30, 1, 0.003166421, 0.001612847,        0,       0,       0,       0, 0, 0, 0, 0, 1, 1, 0, 1, 1, 0, 1, 0, 1, 0, 1
    30,     31, 1, 0.006079528, 0.006008401,        0,       0,       0,       0, 0, 0, 0, 0, 1, 1, 0, 1, 1, 0, 1, 0, 1, 0, 1
    31,     32, 1, 0.001937288, 0.002257986,        0,       0,       0,       0, 0, 0, 0, 0, 1, 1, 0, 1, 1, 0, 1, 0, 1, 0, 1
    32,     33, 1, 0.002127585, 0.003308052,        0,       0,       0,       0, 0, 0, 0, 0, 1, 1, 0, 1, 1, 0, 1, 0, 1, 0, 1
    21,      8, 1, 0.01247851, 0.01247851,        0,       0,       0,       0, 0, 0, 0, 0, 0, 1, 0, 1, 1, 0, 1, 0, 1, 0, 1
     9,     15, 1, 0.01247851, 0.01247851,        0,       0,       0,       0, 0, 0, 0, 0, 0, 1, 0, 1, 1, 0, 1, 0, 1, 0, 1
    12,     22, 1, 0.01247851, 0.01247851,        0,       0,       0,       0, 0, 0, 0, 0, 0, 1, 0, 1, 1, 0, 1, 0, 1, 0, 1
    18,     33, 1, 0.003119626, 0.003119626,        0,       0,       0,       0, 0, 0, 0, 0, 0, 1, 0, 1, 1, 0, 1, 0, 1, 0, 1
    25,     29, 1, 0.003119626, 0.003119626,        0,       0,       0,       0, 0, 0, 0, 0, 0, 1, 0, 1, 1, 0, 1, 0, 1, 0, 1
0 / END OF BRANCH DATA, BEGIN TRANSFORMER DATA
0 / END OF TRANSFORMER DATA, BEGIN AREA DATA
0 / END OF AREA DATA, BEGIN TWO-TERMINAL DC DATA
0 / END OF TWO-TERMINAL DC DATA, BEGIN VOLTAGE SOURCE CONVERTER DATA
0 / END OF VOLTAGE SOURCE CONVERTER DATA, BEGIN IMPEDANCE CORRECTION DATA
0 / END OF IMPEDANCE CORRECTION DATA, BEGIN MULTI-TERMINAL DC DATA
0 / END OF MULTI-TERMINAL DC DATA, BEGIN MULTI-SECTION LINE DATA
0 / END OF MULTI-SECTION LINE DATA, BEGIN ZONE DATA
0 / END OF ZONE DATA, BEGIN INTER-AREA TRANSFER DATA
0 / END OF INTER-AREA TRANSFER DATA, BEGIN OWNER DATA
0 / END OF OWNER DATA, BEGIN FACTS CONTROL DEVICE DATA
0 / END OF FACTS CONTROL DEVICE DATA, BEGIN SWITCHED SHUNT DATA
0 / END OF SWITCHED SHUNT DATA, BEGIN GNE DEVICE DATA
0 / END OF GNE DEVICE DATA, BEGIN INDUCTION MACHINE DATA
0 / END OF INDUCTION MACHINE DATA
Q
